*EXP.DETAILS: UFGA2226LU LETTUCE HYDROPONIC NFT - 26C TEMPERATURE GROUP

*GENERAL
@PEOPLE
Kapil Bhattarai
@ADDRESS
University of Hohenheim, Germany
@SITE
IhingerHof Research Station

*TREATMENTS                        -------------FACTOR LEVELS------------
@N R O C TNAME.................... CU FL SA IC MP MI MF MR MC MT ME MH SM HS HC
 1 1 0 0 Rex_26C                  1  1  0  1  1  1  0  0  0  0  1  1  1  1  1
 2 1 0 0 Muir_26C                 2  1  0  2  1  1  0  0  0  0  1  1  1  1  1
 3 1 0 0 Skyphos_26C              3  1  0  3  1  1  0  0  0  0  1  1  1  1  1

*CULTIVARS
@C CR INGENO CNAME
 1 LU LU0001 Rex
 2 LU LU0002 Muir
 3 LU LU0003 Skyphos

*FIELDS
@L ID_FIELD WSTA....  FLSA  FLOB  FLDT  FLDD  FLDS  FLST SLTX  SLDP  ID_SOIL    FLNAME
 1 UFGB0001 JPHO2201   -99   -99   -99   -99   -99   -99 -99    -99  -99        Hydroponic_NFT
@L ...........XCRD ...........YCRD .....ELEV .............AREA .SLEN .FLWR .SLAS FLHST FHDUR
 1             -99             -99       -99                50   -99   -99   -99   -99   -99

*INITIAL CONDITIONS
@C   PCR ICDAT  ICRT  ICND  ICRN  ICRE  ICWD ICRES ICREN ICREP ICRIP ICRID ICNAME
 1    LU 22240   -99   -99     1     1   -99   -99   -99   -99   -99   -99 Hydroponic - Rex
 2    LU 22240   -99   -99     2     1   -99   -99   -99   -99   -99   -99 Hydroponic - Muir
 3    LU 22240   -99   -99     3     1   -99   -99   -99   -99   -99   -99 Hydroponic - Skyphos

*PLANTING DETAILS
@P PDATE EDATE  PPOP  PPOE  PLME  PLDS  PLRS  PLRD  PLDP  PLWT  PAGE  PENV  PLPH  SPRL                        PLNAME
 1 22243   -99  12.3  12.3     T     R    29     0     5     5     7    20   -99     3                        E2_26C_Aug31

*IRRIGATION (AUTOMATIC)
@I  IEFF  IDEP  ITHR  IEPT  IOFF  IAME  IAMT IRNAME
 1   -99   -99   -99   -99   -99   -99   -99 Not used in hydroponics

*FERTILIZERS (INORGANIC)
@F FDATE  FMCD  FACD  FDEP  FAMN  FAMP  FAMK  FAMC  FAMO  FOCD FERNAME
 1    -99   -99   -99   -99   -99   -99   -99     0     0 -99 Not used

*RESIDUES
@R  RDATE  RCOD  RAMT  RESN  RESP  RESK  RINP  RDEP  RMET RENAME
 1    -99   -99   -99   -99   -99   -99   -99   -99   -99 Not used in hydroponics

*CHEMICAL APPLICATIONS
@C  CDATE CHCOD CHAMT  CHME CHDEP   CHT..CHNAME
 1    -99   -99   -99   -99   -99   -99 Not used in hydroponics

*TILLAGE
@T  TDATE TIMPL  TDEP TNAME
 1    -99   -99   -99 Not used in hydroponics

*ENVIRONMENT MODIFICATIONS
@E  ODATE EDAY  ERAD  EMAX  EMIN  ERAIN ECO2  EDEW  EWIND ENVNAME
 1 22240   -99   -99   -99   -99 A 0.0 R 800 A  -8 A   0

*HARVEST DETAILS
@H HDATE  HSTG  HCOM HSIZE   HPC  HBPC HNAME
 1 22271 GS000     C     A   -99   -99 E2_26C_Sep28

*HYDROPONIC SOLUTION
@  L    SOLVOL(mm)    EC        PH       DO2      TEMP   NO3_CONC  NH4_CONC    P_CONC    K_CONC    CHLEN    CHSPC
   1      50.0       1.50     5.75     8.0     20.0       150.0        12.0       40.0      250.0    183.0     15.0

*HYDROPONIC CONTROL
@  L  AUTO_PH  AUTO_VOL  AUTO_CONC  AUTO_O2
   1     Y        Y         N          Y

*SIMULATION CONTROLS
@N GENERAL     NYERS NREPS START SDATE RSEED SNAME.................... SMODEL
 1 GE              1     1     S 22240  2150 NFT 26C (Aug transplant)
@N OPTIONS     WATER NITRO SYMBI PHOSP POTAS DISES  CHEM  TILL   CO2
 1 OP              Y     Y     N     Y     Y     N     N     N     M
@N METHODS     WTHER INCON LIGHT EVAPO INFIL PHOTO HYDRO NSWIT MESOM MESEV MESOL
 1 ME              H     M     E     R     S     L     Y     1     G     S     2
@N MANAGEMENT  PLANT IRRIG FERTI RESID HARVS
 1 MA              R     N     R     N     R
@N OUTPUTS     FNAME OVVEW SUMRY FROPT GROUT CAOUT WAOUT NIOUT MIOUT DIOUT VBOSE CHOUT OPOUT FMOPT
 1 OU              N     Y     Y     1     Y     Y     Y     Y     N     N     Y     N     N     A

@  AUTOMATIC MANAGEMENT
@N PLANTING    PFRST PLAST PH2OL PH2OU PH2OD PSTMX PSTMN
 1 PL          22243 22243    40   100    30    40    10
@N IRRIGATION  IMDEP ITHRL ITHRU IROFF IMETH IRAMT IREFF
 1 IR             30    50   100 GS000 IR001    10   -99
@N NITROGEN    NMDEP NMTHR NAMNT NCODE NAOFF
 1 NI             30    50    25 FE001 GS000
@N RESIDUES    RIPCN RTIME RIDEP
 1 RE            100     1    20
@N HARVEST     HFRST HLAST HPCNP HPCNR
 1 HA              0 22365   100     0
